REVCRW   TITLE ' REVEDIT - COBOL RESERVED WORDS '
         GBLB  &MVS
         GBLB  &ENV390
         GBLB  &ENVESA
         LCLC  &REL
         LCLC  &YYYY
         LCLC  &YY
         LCLC  &MM
         LCLC  &DD
         LCLC  &ASMDATE
         COPY  REVGEN
         AIF   (&MVS).MVSOK
&ENVESA  SETB  0                   IF PRE-MVS THEN PRE-ESA
&ENV390  SETB  0                   IF PRE-MVS THEN PRE-390
.MVSOK   ANOP
&REL     SETC  '51.5'              LATEST CHANGE REVIEW RELEASE NUMBER
         AIF   (&ENV390).USEDATC
&MM      SETC  '&SYSDATE'(1,2)     MONTH
&DD      SETC  '&SYSDATE'(4,2)     DAY
&YY      SETC  '&SYSDATE'(7,2)     YEAR
&ASMDATE SETC  '20&YY.-&MM.-&DD'   ISO FORMAT ASSEMBLE DATE
RSECT    OPSYN CSECT
         AGO   .DATEOK
.USEDATC ANOP
&YYYY    SETC  '&SYSDATC'(1,4)     YEAR
&MM      SETC  '&SYSDATC'(5,2)     MONTH
&DD      SETC  '&SYSDATC'(7,2)     DAY
&ASMDATE SETC  '&YYYY.-&MM.-&DD'   ISO FORMAT ASSEMBLE DATE
.DATEOK  ANOP
         EJECT
         MACRO
&NAME    REVRW &RW
         LCLC  &LABEL1
         LCLC  &LABEL2
&LABEL1  SETC  'L1'.'&SYSNDX'
&LABEL2  SETC  'L2'.'&SYSNDX'
&NAME    DC    AL1(&LABEL2-&LABEL1)    RESERVED WORD LENGTH CODE
&LABEL1  EQU   *+1
         DC    C&RW
&LABEL2  EQU   *
         MEND
         EJECT
REVCRW   RSECT
REVCRW   AMODE 31
REVCRW   RMODE ANY
*
         SR    15,15
         BR    14
*
         DC    A(AWORDS)
         DC    A(BWORDS)
         DC    A(CWORDS)
         DC    A(DWORDS)
         DC    A(EWORDS)
         DC    A(FWORDS)
         DC    A(GWORDS)
         DC    A(HWORDS)
         DC    A(IWORDS)
         DC    A(JWORDS)
         DC    A(KWORDS)
         DC    A(LWORDS)
         DC    A(MWORDS)
         DC    A(NWORDS)
         DC    A(OWORDS)
         DC    A(PWORDS)
         DC    A(QWORDS)
         DC    A(RWORDS)
         DC    A(SWORDS)
         DC    A(TWORDS)
         DC    A(UWORDS)
         DC    A(VWORDS)
         DC    A(WWORDS)
         DC    A(XWORDS)
         DC    A(YWORDS)
         DC    A(ZWORDS)
         DC    A(CRWEND)
*
         DC    C'R&REL. &ASMDATE.'
*
AWORDS   EQU   *
         REVRW 'ACCEPT'
         REVRW 'ACCESS'
         REVRW 'ACTIVE-CLASS'
         REVRW 'ADD'
         REVRW 'ADDRESS'
         REVRW 'ADVANCING'
         REVRW 'AFTER'
         REVRW 'ALIGNED'
         REVRW 'ALL'
         REVRW 'ALLOCATE'
         REVRW 'ALPHABET'
         REVRW 'ALPHABETIC'
         REVRW 'ALPHABETIC-LOWER'
         REVRW 'ALPHABETIC-UPPER'
         REVRW 'ALPHANUMERIC'
         REVRW 'ALPHANUMERIC-EDITED'
         REVRW 'ALSO'
         REVRW 'ALTER'
         REVRW 'ALTERNATE'
         REVRW 'AND'
         REVRW 'ANY'
         REVRW 'ANYCASE'
         REVRW 'APPLY'
         REVRW 'ARE'
         REVRW 'AREA'
         REVRW 'AREAS'
         REVRW 'ASCENDING'
         REVRW 'ASSIGN'
         REVRW 'AT'
         REVRW 'AUTHOR'
BWORDS   EQU   *
         REVRW 'B-AND'
         REVRW 'B-NOT'
         REVRW 'B-OR'
         REVRW 'B-XOR'
         REVRW 'BASED'
         REVRW 'BASIS'
         REVRW 'BEFORE'
         REVRW 'BEGINNING'
         REVRW 'BINARY'
         REVRW 'BINARY-CHAR'
         REVRW 'BINARY-DOUBLE'
         REVRW 'BINARY-LONG'
         REVRW 'BINARY-SHORT'
         REVRW 'BIT'
         REVRW 'BLANK'
         REVRW 'BLOCK'
         REVRW 'BOOLEAN'
         REVRW 'BOTTOM'
         REVRW 'BY'
         REVRW 'BYTE-LENGTH'
CWORDS   EQU   *
         REVRW 'CALL'
         REVRW 'CANCEL'
         REVRW 'CBL'
         REVRW 'CD'
         REVRW 'CF'
         REVRW 'CH'
         REVRW 'CHARACTER'
         REVRW 'CHARACTERS'
         REVRW 'CLASS'
         REVRW 'CLASS-ID'
         REVRW 'CLOCK-UNITS'
         REVRW 'CLOSE'
         REVRW 'COBOL'
         REVRW 'CODE'
         REVRW 'CODE-SET'
         REVRW 'COL'
         REVRW 'COLLATING'
         REVRW 'COLS'
         REVRW 'COLUMN'
         REVRW 'COLUMNS'
         REVRW 'COM-REG'
         REVRW 'COMMA'
         REVRW 'COMMON'
         REVRW 'COMMUNICATION'
         REVRW 'COMP'
         REVRW 'COMP-1'
         REVRW 'COMP-2'
         REVRW 'COMP-3'
         REVRW 'COMP-4'
         REVRW 'COMP-5'
         REVRW 'COMPUTATIONAL'
         REVRW 'COMPUTATIONAL-1'
         REVRW 'COMPUTATIONAL-2'
         REVRW 'COMPUTATIONAL-3'
         REVRW 'COMPUTATIONAL-4'
         REVRW 'COMPUTATIONAL-5'
         REVRW 'COMPUTE'
         REVRW 'CONDITION'
         REVRW 'CONFIGURATION'
         REVRW 'CONSTANT'
         REVRW 'CONTAINS'
         REVRW 'CONTENT'
         REVRW 'CONTINUE'
         REVRW 'CONTROL'
         REVRW 'CONTROLS'
         REVRW 'CONVERTING'
         REVRW 'COPY'
         REVRW 'CORR'
         REVRW 'CORRESPONDING'
         REVRW 'COUNT'
         REVRW 'CRT'
         REVRW 'CURRENCY'
         REVRW 'CURSOR'
DWORDS   EQU   *
         REVRW 'DATA'
         REVRW 'DATA-POINTER'
         REVRW 'DATE'
         REVRW 'DATE-COMPILED'
         REVRW 'DATE-WRITTEN'
         REVRW 'DAY'
         REVRW 'DAY-OF-WEEK'
         REVRW 'DBCS'
         REVRW 'DE'
         REVRW 'DEBUG-CONTENTS'
         REVRW 'DEBUG-ITEM'
         REVRW 'DEBUG-LINE'
         REVRW 'DEBUG-NAME'
         REVRW 'DEBUG-SUB-1'
         REVRW 'DEBUG-SUB-2'
         REVRW 'DEBUG-SUB-3'
         REVRW 'DEBUGGING'
         REVRW 'DECIMAL-POINT'
         REVRW 'DECLARATIVES'
         REVRW 'DEFAULT'
         REVRW 'DELETE'
         REVRW 'DELIMITED'
         REVRW 'DELIMITER'
         REVRW 'DEPENDING'
         REVRW 'DESCENDING'
         REVRW 'DESTINATION'
         REVRW 'DETAIL'
         REVRW 'DISABLE'
         REVRW 'DISPLAY'
         REVRW 'DISPLAY-1'
         REVRW 'DIVIDE'
         REVRW 'DIVISION'
         REVRW 'DOWN'
         REVRW 'DUPLICATES'
         REVRW 'DYNAMIC'
EWORDS   EQU   *
         REVRW 'EC'
         REVRW 'EGCS'
         REVRW 'EGI'
         REVRW 'EJECT'
         REVRW 'ELSE'
         REVRW 'EMI'
         REVRW 'ENABLE'
         REVRW 'END'
         REVRW 'END-ACCEPT'
         REVRW 'END-ADD'
         REVRW 'END-CALL'
         REVRW 'END-COMPUTE'
         REVRW 'END-DELETE'
         REVRW 'END-DISPLAY'
         REVRW 'END-DIVIDE'
         REVRW 'END-EVALUATE'
         REVRW 'END-EXEC'
         REVRW 'END-IF'
         REVRW 'END-INVOKE'
         REVRW 'END-JSON'
         REVRW 'END-MULTIPLY'
         REVRW 'END-OF-PAGE'
         REVRW 'END-PERFORM'
         REVRW 'END-READ'
         REVRW 'END-RECEIVE'
         REVRW 'END-RETURN'
         REVRW 'END-REWRITE'
         REVRW 'END-SEARCH'
         REVRW 'END-START'
         REVRW 'END-STRING'
         REVRW 'END-SUBTRACT'
         REVRW 'END-UNSTRING'
         REVRW 'END-WRITE'
         REVRW 'END-XML'
         REVRW 'ENDING'
         REVRW 'ENTER'
         REVRW 'ENTRY'
         REVRW 'ENVIRONMENT'
         REVRW 'EO'
         REVRW 'EOP'
         REVRW 'EQUAL'
         REVRW 'ERROR'
         REVRW 'ESI'
         REVRW 'EVALUATE'
         REVRW 'EVERY'
         REVRW 'EXCEPTION'
         REVRW 'EXCEPTION-OBJECT'
         REVRW 'EXEC'
         REVRW 'EXECUTE'
         REVRW 'EXIT'
         REVRW 'EXTEND'
         REVRW 'EXTERNAL'
FWORDS   EQU   *
         REVRW 'FACTORY'
         REVRW 'FALSE'
         REVRW 'FD'
         REVRW 'FILE'
         REVRW 'FILE-CONTROL'
         REVRW 'FILLER'
         REVRW 'FINAL'
         REVRW 'FIRST'
         REVRW 'FLOAT-EXTENDED'
         REVRW 'FLOAT-LONG'
         REVRW 'FLOAT-SHORT'
         REVRW 'FOOTING'
         REVRW 'FOR'
         REVRW 'FORMAT'
         REVRW 'FREE'
         REVRW 'FROM'
         REVRW 'FUNCTION'
         REVRW 'FUNCTION-ID'
         REVRW 'FUNCTION-POINTER'
GWORDS   EQU   *
         REVRW 'GENERATE'
         REVRW 'GET'
         REVRW 'GIVING'
         REVRW 'GLOBAL'
         REVRW 'GO'
         REVRW 'GOBACK'
         REVRW 'GREATER'
         REVRW 'GROUP'
         REVRW 'GROUP-USAGE'
HWORDS   EQU   *
         REVRW 'HEADING'
         REVRW 'HIGH-VALUE'
         REVRW 'HIGH-VALUES'
IWORDS   EQU   *
         REVRW 'I-O'
         REVRW 'I-O-CONTROL'
         REVRW 'ID'
         REVRW 'IDENTIFICATION'
         REVRW 'IF'
         REVRW 'IN'
         REVRW 'INDEX'
         REVRW 'INDEXED'
         REVRW 'INDICATE'
         REVRW 'INHERITS'
         REVRW 'INITIAL'
         REVRW 'INITIALIZE'
         REVRW 'INITIATE'
         REVRW 'INPUT'
         REVRW 'INPUT-OUTPUT'
         REVRW 'INSERT'
         REVRW 'INSPECT'
         REVRW 'INSTALLATION'
         REVRW 'INTERFACE'
         REVRW 'INTERFACE-ID'
         REVRW 'INTO'
         REVRW 'INVALID'
         REVRW 'INVOKE'
         REVRW 'IS'
JWORDS   EQU   *
         REVRW 'JAVA'
         REVRW 'JNIENVPTR'
         REVRW 'JSON'
         REVRW 'JSON-CODE'
         REVRW 'JSON-STATUS'
         REVRW 'JUST'
         REVRW 'JUSTIFIED'
KWORDS   EQU   *
         REVRW 'KANJI'
         REVRW 'KEY'
LWORDS   EQU   *
         REVRW 'LABEL'
         REVRW 'LAST'
         REVRW 'LEADING'
         REVRW 'LEFT'
         REVRW 'LENGTH'
         REVRW 'LESS'
         REVRW 'LIMIT'
         REVRW 'LIMITS'
         REVRW 'LINAGE'
         REVRW 'LINAGE-COUNTER'
         REVRW 'LINE'
         REVRW 'LINE-COUNTER'
         REVRW 'LINES'
         REVRW 'LINKAGE'
         REVRW 'LOCAL-STORAGE'
         REVRW 'LOCALE'
         REVRW 'LOCK'
         REVRW 'LOW-VALUE'
         REVRW 'LOW-VALUES'
MWORDS   EQU   *
         REVRW 'MEMORY'
         REVRW 'MERGE'
         REVRW 'MESSAGE'
         REVRW 'METHOD'
         REVRW 'METHOD-ID'
         REVRW 'MINUS'
         REVRW 'MODE'
         REVRW 'MODULES'
         REVRW 'MORE-LABELS'
         REVRW 'MOVE'
         REVRW 'MULTIPLE'
         REVRW 'MULTIPLY'
NWORDS   EQU   *
         REVRW 'NATIONAL'
         REVRW 'NATIONAL-EDITED'
         REVRW 'NATIVE'
         REVRW 'NEGATIVE'
         REVRW 'NESTED'
         REVRW 'NEXT'
         REVRW 'NO'
         REVRW 'NOT'
         REVRW 'NULL'
         REVRW 'NULLS'
         REVRW 'NUMBER'
         REVRW 'NUMERIC'
         REVRW 'NUMERIC-EDITED'
OWORDS   EQU   *
         REVRW 'OBJECT'
         REVRW 'OBJECT-COMPUTER'
         REVRW 'OBJECT-REFERENCE'
         REVRW 'OCCURS'
         REVRW 'OF'
         REVRW 'OFF'
         REVRW 'OMITTED'
         REVRW 'ON'
         REVRW 'OPEN'
         REVRW 'OPTIONAL'
         REVRW 'OPTIONS'
         REVRW 'OR'
         REVRW 'ORDER'
         REVRW 'ORGANIZATION'
         REVRW 'OTHER'
         REVRW 'OUTPUT'
         REVRW 'OVERFLOW'
         REVRW 'OVERRIDE'
PWORDS   EQU   *
         REVRW 'PACKED-DECIMAL'
         REVRW 'PADDING'
         REVRW 'PAGE'
         REVRW 'PAGE-COUNTER'
         REVRW 'PASSWORD'
         REVRW 'PERFORM'
         REVRW 'PF'
         REVRW 'PH'
         REVRW 'PIC'
         REVRW 'PICTURE'
         REVRW 'PLUS'
         REVRW 'POINTER'
         REVRW 'POINTER-24'
         REVRW 'POINTER-31'
         REVRW 'POINTER-32'
         REVRW 'POINTER-64'
         REVRW 'POSITION'
         REVRW 'POSITIVE'
         REVRW 'PRESENT'
         REVRW 'PRINTING'
         REVRW 'PROCEDURE'
         REVRW 'PROCEDURE-POINTER'
         REVRW 'PROCEDURES'
         REVRW 'PROCEED'
         REVRW 'PROCESSING'
         REVRW 'PROGRAM'
         REVRW 'PROGRAM-ID'
         REVRW 'PROGRAM-POINTER'
         REVRW 'PROPERTY'
         REVRW 'PROTOTYPE'
         REVRW 'PURGE'
QWORDS   EQU   *
         REVRW 'QUEUE'
         REVRW 'QUOTE'
         REVRW 'QUOTES'
RWORDS   EQU   *
         REVRW 'RAISE'
         REVRW 'RAISING'
         REVRW 'RANDOM'
         REVRW 'RD'
         REVRW 'READ'
         REVRW 'READY'
         REVRW 'RECEIVE'
         REVRW 'RECORD'
         REVRW 'RECORDING'
         REVRW 'RECORDS'
         REVRW 'RECURSIVE'
         REVRW 'REDEFINES'
         REVRW 'REEL'
         REVRW 'REFERENCE'
         REVRW 'REFERENCES'
         REVRW 'RELATIVE'
         REVRW 'RELEASE'
         REVRW 'RELOAD'
         REVRW 'REMAINDER'
         REVRW 'REMOVAL'
         REVRW 'RENAMES'
         REVRW 'REPLACE'
         REVRW 'REPLACING'
         REVRW 'REPORT'
         REVRW 'REPORTING'
         REVRW 'REPORTS'
         REVRW 'REPOSITORY'
         REVRW 'RERUN'
         REVRW 'RESERVE'
         REVRW 'RESET'
         REVRW 'RESUME'
         REVRW 'RETRY'
         REVRW 'RETURN'
         REVRW 'RETURN-CODE'
         REVRW 'RETURNING'
         REVRW 'REVERSED'
         REVRW 'REWIND'
         REVRW 'REWRITE'
         REVRW 'RF'
         REVRW 'RH'
         REVRW 'RIGHT'
         REVRW 'ROUNDED'
         REVRW 'RUN'
SWORDS   EQU   *
         REVRW 'SAME'
         REVRW 'SCREEN'
         REVRW 'SD'
         REVRW 'SEARCH'
         REVRW 'SECTION'
         REVRW 'SECURITY'
         REVRW 'SEGMENT'
         REVRW 'SEGMENT-LIMIT'
         REVRW 'SELECT'
         REVRW 'SELF'
         REVRW 'SEND'
         REVRW 'SENTENCE'
         REVRW 'SEPARATE'
         REVRW 'SEQUENCE'
         REVRW 'SEQUENTIAL'
         REVRW 'SERVICE'
         REVRW 'SET'
         REVRW 'SHARING'
         REVRW 'SHIFT-IN'
         REVRW 'SHIFT-OUT'
         REVRW 'SIGN'
         REVRW 'SIZE'
         REVRW 'SKIP1'
         REVRW 'SKIP2'
         REVRW 'SKIP3'
         REVRW 'SORT'
         REVRW 'SORT-CONTROL'
         REVRW 'SORT-CORE-SIZE'
         REVRW 'SORT-FILE-SIZE'
         REVRW 'SORT-MERGE'
         REVRW 'SORT-MESSAGE'
         REVRW 'SORT-MODE-SIZE'
         REVRW 'SORT-RETURN'
         REVRW 'SOURCE'
         REVRW 'SOURCE-COMPUTER'
         REVRW 'SOURCES'
         REVRW 'SPACE'
         REVRW 'SPACES'
         REVRW 'SPECIAL-NAMES'
         REVRW 'SQL'
         REVRW 'SQLIMS'
         REVRW 'STANDARD'
         REVRW 'STANDARD-1'
         REVRW 'STANDARD-2'
         REVRW 'START'
         REVRW 'STATUS'
         REVRW 'STOP'
         REVRW 'STRING'
         REVRW 'SUB-QUEUE-1'
         REVRW 'SUB-QUEUE-2'
         REVRW 'SUB-QUEUE-3'
         REVRW 'SUBTRACT'
         REVRW 'SUM'
         REVRW 'SUPER'
         REVRW 'SUPPRESS'
         REVRW 'SYMBOLIC'
         REVRW 'SYNC'
         REVRW 'SYNCHRONIZED'
         REVRW 'SYSTEM-DEFAULT'
TWORDS   EQU   *
         REVRW 'TABLE'
         REVRW 'TALLY'
         REVRW 'TALLYING'
         REVRW 'TAPE'
         REVRW 'TERMINAL'
         REVRW 'TERMINATE'
         REVRW 'TEST'
         REVRW 'TEXT'
         REVRW 'THAN'
         REVRW 'THEN'
         REVRW 'THROUGH'
         REVRW 'THRU'
         REVRW 'TIME'
         REVRW 'TIMES'
         REVRW 'TITLE'
         REVRW 'TO'
         REVRW 'TOP'
         REVRW 'TRACE'
         REVRW 'TRAILING'
         REVRW 'TRUE'
         REVRW 'TYPE'
         REVRW 'TYPEDEF'
UWORDS   EQU   *
         REVRW 'UNIT'
         REVRW 'UNIVERSAL'
         REVRW 'UNLOCK'
         REVRW 'UNSTRING'
         REVRW 'UNTIL'
         REVRW 'UP'
         REVRW 'UPON'
         REVRW 'USAGE'
         REVRW 'USE'
         REVRW 'USER-DEFAULT'
         REVRW 'USING'
         REVRW 'UTF-8'
VWORDS   EQU   *
         REVRW 'VAL-STATUS'
         REVRW 'VALID'
         REVRW 'VALIDATE'
         REVRW 'VALIDATE-STATUS'
         REVRW 'VALUE'
         REVRW 'VALUES'
         REVRW 'VARYING'
         REVRW 'VOLATILE'
WWORDS   EQU   *
         REVRW 'WHEN'
         REVRW 'WHEN-COMPILED'
         REVRW 'WITH'
         REVRW 'WORDS'
         REVRW 'WORKING-STORAGE'
         REVRW 'WRITE'
         REVRW 'WRITE-ONLY'
XWORDS   EQU   *
         REVRW 'XML'
         REVRW 'XML-CODE'
         REVRW 'XML-EVENT'
         REVRW 'XML-INFORMATION'
         REVRW 'XML-NAMESPACE'
         REVRW 'XML-NAMESPACE-PREFIX'
         REVRW 'XML-NNAMESPACE'
         REVRW 'XML-NNAMESPACE-PREFIX'
         REVRW 'XML-NTEXT'
         REVRW 'XML-SCHEMA'
         REVRW 'XML-TEXT'
YWORDS   EQU   *
ZWORDS   EQU   *
         REVRW 'ZERO'
         REVRW 'ZEROES'
         REVRW 'ZEROS'
CRWEND   EQU   *
*
         DC    0D'0'
*
         END   REVCRW
